Version 4
SHEET 1 1572 1124
WIRE 256 480 128 480
WIRE 384 480 256 480
WIRE 512 480 384 480
WIRE 560 480 512 480
WIRE 672 480 640 480
WIRE 784 480 736 480
WIRE 912 480 848 480
WIRE 1008 480 912 480
WIRE 1104 480 1008 480
WIRE 1168 480 1104 480
WIRE 1200 480 1168 480
WIRE 784 544 784 480
WIRE 912 544 912 480
WIRE 1008 544 1008 480
WIRE 512 560 512 480
WIRE 672 560 672 480
WIRE 128 592 128 480
WIRE 1200 592 1200 480
WIRE 256 608 256 480
WIRE 1104 608 1104 480
WIRE 384 624 384 480
WIRE 432 624 384 624
WIRE 848 672 752 672
WIRE 912 672 912 624
WIRE 912 672 848 672
WIRE 1008 672 1008 608
WIRE 1008 672 912 672
WIRE 848 704 848 672
WIRE 432 720 368 720
WIRE 368 736 368 720
WIRE 784 784 784 624
WIRE 848 784 784 784
WIRE 128 816 128 672
WIRE 256 816 256 672
WIRE 368 816 368 800
WIRE 592 816 592 784
WIRE 848 816 848 784
WIRE 1104 816 1104 672
WIRE 1200 816 1200 672
FLAG 1168 480 OUT
FLAG 848 816 0
FLAG 1104 816 0
FLAG 1200 816 0
FLAG 592 816 0
FLAG 128 816 0
FLAG 256 816 0
FLAG 368 816 0
FLAG 128 480 IN
SYMBOL VOLTAGE 128 576 R0
WINDOW 123 0 0 Left 0
WINDOW 39 0 0 Left 0
SYMATTR InstName V1
SYMATTR Value 15.5V
SYMBOL RES 896 528 R0
SYMATTR InstName R1
SYMATTR Value 25K
SYMBOL RES 832 688 R0
SYMATTR InstName R2
SYMATTR Value 13.3K
SYMBOL ind 544 496 R270
WINDOW 0 32 56 VTop 0
WINDOW 3 5 56 VBottom 0
SYMATTR InstName L1
SYMATTR Value 10
SYMATTR SpiceLine Ipk=0.8 Rser=0.33 Rpar=942 Cpar=0 mfg="Coilcraft" pn="ME3220-103KX"
SYMBOL LOAD2 1200 592 R0
WINDOW 39 25 112 Left 0
WINDOW 123 0 0 Left 0
SYMATTR SpiceLine load
SYMATTR InstName Iload
SYMATTR Value 500m
SYMBOL SCHOTTKY 784 496 R270
WINDOW 0 32 32 VTop 0
WINDOW 3 0 32 VBottom 0
SYMATTR InstName D1
SYMATTR Value MBRS130L
SYMBOL PowerProducts\\LT3467 592 672 R0
SYMATTR InstName U1
SYMBOL cap 240 608 R0
SYMATTR InstName C1
SYMATTR Value 10
SYMATTR SpiceLine V=25 Irms=0 Rser=0.001 Lser=0 mfg="TDK" pn="C575OX7RIE106M" type="X7R"
SYMBOL cap 1088 608 R0
SYMATTR InstName C2
SYMATTR Value 10
SYMBOL cap 992 544 R0
SYMATTR InstName C3
SYMATTR Value 12p
SYMBOL cap 352 736 R0
SYMATTR InstName C4
SYMATTR Value .001
SYMBOL ind 768 528 R0
SYMATTR InstName L2
SYMATTR Value 10
SYMBOL cap 736 464 R90
WINDOW 0 0 32 VBottom 0
WINDOW 3 32 32 VTop 0
SYMATTR InstName C5
SYMATTR Value 4.7
SYMATTR SpiceLine V=10 Irms=0 Rser=0.003 Lser=0 mfg="TDK" pn="C3216X5RlA475M" type="X5R"
TEXT 88 872 Left 0 ;Note:\n  If the simulation model is not found please update with the "Sync Release" command from the "Tools" menu.\n  It remains the customer's responsibility to verify proper and reliable operation in the actual application.\n  Component substitution and printed circuit board layout may significantly affect circuit performance or reliability.\n  Contact your local sales representative for assistance. This circuit is distributed to customers only for use with LTC parts.\n  Copyright  2006 Linear Technology Inc. All rights reserved.
TEXT 848 856 Left 0 !.tran .5m startup
TEXT 680 424 Bottom 0 ;LT3467 - 1.1A, 1.3MHz, Step-up DC/DC Converter in ThinSOT\nInput: 5V    Output: 12V @ 260mA
